Version 4
SHEET 1 1392 680
WIRE -112 -416 -112 -480
WIRE -112 -272 -112 -336
WIRE 784 -176 528 -176
WIRE 896 -160 848 -160
WIRE 784 -144 768 -144
WIRE 208 -128 -48 -128
WIRE -48 -48 -48 -128
WIRE 80 -48 -48 -48
WIRE 208 -32 208 -128
WIRE 208 -32 144 -32
WIRE 256 -32 208 -32
WIRE 416 -32 336 -32
WIRE 528 -32 528 -176
WIRE 528 -32 480 -32
WIRE 544 -32 528 -32
WIRE 656 -32 624 -32
WIRE 672 -32 656 -32
WIRE 768 -32 768 -144
WIRE 768 -32 736 -32
WIRE 784 -32 768 -32
WIRE 896 -32 896 -160
WIRE 896 -32 864 -32
WIRE 928 -32 896 -32
WIRE 1024 -32 1008 -32
WIRE 1072 -32 1024 -32
WIRE 1168 -32 1072 -32
WIRE -192 -16 -288 -16
WIRE -48 -16 -128 -16
WIRE 80 -16 -48 -16
WIRE 1072 16 1072 -32
WIRE -48 32 -48 -16
WIRE 768 64 768 -32
WIRE 768 64 752 64
WIRE 656 80 656 -32
WIRE 688 80 656 80
WIRE 1024 96 1024 -32
WIRE 1024 96 752 96
WIRE 1072 128 1072 96
WIRE -48 144 -48 112
FLAG -288 -16 Vi
FLAG 1168 -32 Vo
FLAG -112 -272 0
FLAG -112 -480 Vi
FLAG -48 144 0
FLAG 1072 128 0
SYMBOL OpAmps\\opamp 112 -96 R0
SYMATTR InstName U1
SYMBOL res 352 -48 R90
WINDOW 0 0 56 VBottom 2
WINDOW 3 32 56 VTop 2
SYMATTR InstName R2
SYMATTR Value 1
SYMBOL cap 480 -48 R90
WINDOW 0 0 32 VBottom 2
WINDOW 3 32 32 VTop 2
SYMATTR InstName C2
SYMATTR Value 0.627
SYMBOL voltage -112 -432 R0
WINDOW 123 26 94 Left 2
WINDOW 39 0 0 Left 0
SYMATTR Value2 AC 1 0
SYMATTR InstName V1
SYMATTR Value ""
SYMBOL res -32 128 R180
WINDOW 0 -61 78 Left 2
WINDOW 3 -45 44 Left 2
SYMATTR InstName R1
SYMATTR Value 1
SYMBOL res 640 -48 R90
WINDOW 0 0 56 VBottom 2
WINDOW 3 32 56 VTop 2
SYMATTR InstName Z1
SYMATTR Value 1
SYMBOL cap 736 -48 R90
WINDOW 0 0 32 VBottom 2
WINDOW 3 32 32 VTop 2
SYMATTR InstName Z2
SYMATTR Value 1.823
SYMBOL res 880 -48 R90
WINDOW 0 0 56 VBottom 2
WINDOW 3 32 56 VTop 2
SYMATTR InstName Z3
SYMATTR Value 1
SYMBOL res 1024 -48 R90
WINDOW 0 0 56 VBottom 2
WINDOW 3 32 56 VTop 2
SYMATTR InstName Z4
SYMATTR Value 1
SYMBOL res 1088 112 R180
WINDOW 0 -61 78 Left 2
WINDOW 3 -45 44 Left 2
SYMATTR InstName Z5
SYMATTR Value 1
SYMBOL OpAmps\\opamp 816 -96 M180
SYMATTR InstName U4
SYMBOL OpAmps\\opamp 720 16 M0
SYMATTR InstName U5
SYMBOL cap -128 -32 R90
WINDOW 0 0 32 VBottom 2
WINDOW 3 32 32 VTop 2
SYMATTR InstName C1
SYMATTR Value 0.627
TEXT 104 -304 Left 2 !.lib opamp.sub
TEXT 104 -264 Left 2 !.ac dec 100 0.01 10
TEXT 104 -424 Left 4 ;Filtro Pasa-altos Chebyshev
TEXT 104 -384 Left 3 ;Orden 3 - Inductor activado
