Version 4
SHEET 1 880 680
WIRE 144 -80 -48 -80
WIRE 512 -80 144 -80
WIRE 512 -32 512 -80
WIRE 144 48 144 -80
WIRE 512 80 512 48
WIRE -48 128 -48 -80
WIRE 144 160 144 128
WIRE 256 160 144 160
WIRE 512 160 512 144
WIRE 512 160 400 160
WIRE 144 208 144 160
WIRE 512 256 512 160
WIRE 144 320 144 288
WIRE -48 432 -48 208
WIRE 144 432 144 384
WIRE 144 432 -48 432
WIRE 512 432 512 336
WIRE 512 432 144 432
FLAG 400 160 V2-
FLAG 256 160 V2+
FLAG -48 432 0
SYMBOL res 128 32 R0
SYMATTR InstName R1
SYMATTR Value 1.41
SYMBOL res 496 240 R0
SYMATTR InstName R2
SYMATTR Value 1.41
SYMBOL ind 128 192 R0
SYMATTR InstName L1
SYMATTR Value 1
SYMBOL ind 496 -48 R0
SYMATTR InstName L2
SYMATTR Value 1
SYMBOL cap 128 320 R0
SYMATTR InstName C1
SYMATTR Value 1
SYMBOL cap 496 80 R0
SYMATTR InstName C2
SYMATTR Value 1
SYMBOL voltage -48 112 R0
WINDOW 123 24 124 Left 2
WINDOW 39 0 0 Left 0
SYMATTR InstName V1
SYMATTR Value ""
SYMATTR Value2 AC 1 0
TEXT -48 -216 Left 2 !.ac dec 1000 0.01 100
