Version 4
SHEET 1 1032 680
WIRE 496 -272 416 -272
WIRE 656 -272 576 -272
WIRE 144 -80 -64 -80
WIRE 736 -80 224 -80
WIRE -64 16 -64 -80
WIRE -16 16 -64 16
WIRE 112 16 64 16
WIRE 320 48 288 48
WIRE 416 48 384 48
WIRE 608 48 560 48
WIRE 736 48 736 -80
WIRE 736 48 672 48
WIRE -64 128 -64 16
WIRE 0 128 -64 128
WIRE 112 144 112 16
WIRE 112 144 64 144
WIRE 144 144 112 144
WIRE 288 144 288 48
WIRE 288 144 224 144
WIRE 336 144 288 144
WIRE -288 160 -352 160
WIRE -176 160 -208 160
WIRE -64 160 -176 160
WIRE 0 160 -64 160
WIRE 416 160 416 48
WIRE 416 160 400 160
WIRE 464 160 416 160
WIRE 560 160 560 48
WIRE 560 160 544 160
WIRE 592 160 560 160
WIRE 336 176 288 176
WIRE 736 176 736 48
WIRE 736 176 656 176
WIRE 592 192 560 192
WIRE -176 208 -176 160
WIRE 288 224 288 176
WIRE 560 224 560 192
WIRE -176 368 -176 288
WIRE -64 368 -64 160
WIRE 144 368 -64 368
WIRE 416 368 416 160
WIRE 416 368 224 368
WIRE 496 368 416 368
FLAG 416 -272 0
FLAG 288 224 0
FLAG 560 224 0
FLAG -176 368 0
FLAG 656 -272 Vin
FLAG -352 160 Vin
FLAG 496 368 Vo
SYMBOL OpAmps\\opamp 32 80 R0
SYMATTR InstName U1
SYMBOL OpAmps\\opamp 368 96 R0
SYMATTR InstName U2
SYMBOL OpAmps\\opamp 624 112 R0
SYMATTR InstName U3
SYMBOL res 240 128 R90
WINDOW 0 0 56 VBottom 2
WINDOW 3 32 56 VTop 2
SYMATTR InstName Rf1
SYMATTR Value 26.55k
SYMBOL res 560 144 R90
WINDOW 0 0 56 VBottom 2
WINDOW 3 32 56 VTop 2
SYMATTR InstName Rf2
SYMATTR Value 26.56k
SYMBOL res 80 0 R90
WINDOW 0 0 56 VBottom 2
WINDOW 3 32 56 VTop 2
SYMATTR InstName R3
SYMATTR Value 50k
SYMBOL res 240 -96 R90
WINDOW 0 0 56 VBottom 2
WINDOW 3 32 56 VTop 2
SYMATTR InstName R4
SYMATTR Value 50k
SYMBOL res 240 352 R90
WINDOW 0 0 56 VBottom 2
WINDOW 3 32 56 VTop 2
SYMATTR InstName R5
SYMATTR Value 50k
SYMBOL res -192 144 R90
WINDOW 0 0 56 VBottom 2
WINDOW 3 32 56 VTop 2
SYMATTR InstName Rg
SYMATTR Value 46.25k
SYMBOL res -160 304 R180
WINDOW 0 36 76 Left 2
WINDOW 3 36 40 Left 2
SYMATTR InstName RQ
SYMATTR Value 14.7k
SYMBOL cap 384 32 R90
WINDOW 0 0 32 VBottom 2
WINDOW 3 32 32 VTop 2
SYMATTR InstName C1
SYMATTR Value 1n
SYMBOL cap 672 32 R90
WINDOW 0 0 32 VBottom 2
WINDOW 3 32 32 VTop 2
SYMATTR InstName C2
SYMATTR Value 1n
SYMBOL voltage 592 -272 R90
WINDOW 123 24 124 Left 2
WINDOW 39 0 0 Left 2
SYMATTR Value2 AC 1 0
SYMATTR InstName V1
SYMATTR Value ""
TEXT 424 -400 Left 2 !.lib opamp.sub
TEXT 424 -360 Left 2 !.ac dec 1000 100 100k
TEXT -368 -384 Left 5 ;TPLAB 1 TC2 2023
TEXT -360 -320 Left 4 ;Pasabanda f0 = 6kHz
TEXT -360 -272 Left 3 ;Implementado en UAF42
