Version 4
SHEET 1 880 680
WIRE 240 96 -16 96
WIRE 384 96 320 96
WIRE 480 96 384 96
WIRE 640 96 560 96
WIRE 640 144 640 96
WIRE -16 160 -16 96
WIRE 384 160 384 96
WIRE -16 288 -16 240
WIRE 384 288 384 224
WIRE 384 288 -16 288
WIRE 640 288 640 224
WIRE 640 288 384 288
FLAG -16 288 0
SYMBOL res 656 240 R180
WINDOW 0 36 76 Left 2
WINDOW 3 36 40 Left 2
SYMATTR InstName R
SYMATTR Value 1
SYMBOL ind 336 80 R90
WINDOW 0 5 56 VBottom 2
WINDOW 3 32 56 VTop 2
SYMATTR InstName L1
SYMATTR Value 1.25506
SYMBOL ind 576 80 R90
WINDOW 0 5 56 VBottom 2
WINDOW 3 32 56 VTop 2
SYMATTR InstName L2
SYMATTR Value 0.1921
SYMBOL cap 368 160 R0
SYMATTR InstName C1
SYMATTR Value 0.55275
SYMBOL voltage -16 144 R0
WINDOW 123 416 -145 Left 2
WINDOW 39 48 55 Left 2
WINDOW 3 416 -174 Left 2
SYMATTR Value2 AC 1 0
SYMATTR SpiceLine Rser=1
SYMATTR Value SINE(0 1 1 0 0 0 1000)
SYMATTR InstName V1
TEXT 400 -64 Left 2 !.ac dec 100 0.01 10
TEXT 400 -96 Left 2 !.net I(R) V1
TEXT -40 -88 Left 3 ;Pasabajos Bessel Orden 3
