Version 4
SHEET 1 1392 680
WIRE -112 -416 -112 -480
WIRE -112 -272 -112 -336
WIRE 960 -16 704 -16
WIRE -208 0 -464 0
WIRE 1072 0 1024 0
WIRE -96 16 -144 16
WIRE 960 16 944 16
WIRE -208 32 -224 32
WIRE 320 48 160 48
WIRE 160 112 160 48
WIRE 256 112 160 112
WIRE 320 128 320 48
WIRE 432 128 320 128
WIRE 592 128 512 128
WIRE 704 128 704 -16
WIRE 704 128 656 128
WIRE 720 128 704 128
WIRE 832 128 800 128
WIRE 848 128 832 128
WIRE 944 128 944 16
WIRE 944 128 912 128
WIRE 960 128 944 128
WIRE 1072 128 1072 0
WIRE 1072 128 1040 128
WIRE 1104 128 1072 128
WIRE 1200 128 1184 128
WIRE 1248 128 1200 128
WIRE 1344 128 1248 128
WIRE -592 144 -688 144
WIRE -464 144 -464 0
WIRE -464 144 -512 144
WIRE -448 144 -464 144
WIRE -336 144 -368 144
WIRE -320 144 -336 144
WIRE -224 144 -224 32
WIRE -224 144 -256 144
WIRE -208 144 -224 144
WIRE -96 144 -96 16
WIRE -96 144 -128 144
WIRE -64 144 -96 144
WIRE 32 144 16 144
WIRE 80 144 32 144
WIRE 256 144 80 144
WIRE 1248 176 1248 128
WIRE 80 192 80 144
WIRE 944 224 944 128
WIRE 944 224 928 224
WIRE -224 240 -224 144
WIRE -224 240 -240 240
WIRE 832 240 832 128
WIRE 864 240 832 240
WIRE -336 256 -336 144
WIRE -304 256 -336 256
WIRE 1200 256 1200 128
WIRE 1200 256 928 256
WIRE 32 272 32 144
WIRE 32 272 -240 272
WIRE 1248 288 1248 256
WIRE 80 304 80 272
FLAG -688 144 Vi
FLAG 1344 128 Vo
FLAG -112 -272 0
FLAG -112 -480 Vi
FLAG 80 304 0
FLAG 1248 288 0
SYMBOL res -496 128 R90
WINDOW 0 0 56 VBottom 2
WINDOW 3 32 56 VTop 2
SYMATTR InstName R1
SYMATTR Value 1k
SYMBOL OpAmps\\opamp 288 192 M180
SYMATTR InstName U1
SYMBOL res 528 112 R90
WINDOW 0 0 56 VBottom 2
WINDOW 3 32 56 VTop 2
SYMATTR InstName R2
SYMATTR Value 1k
SYMBOL cap 656 112 R90
WINDOW 0 0 32 VBottom 2
WINDOW 3 32 32 VTop 2
SYMATTR InstName C1
SYMATTR Value 5n
SYMBOL voltage -112 -432 R0
WINDOW 123 26 94 Left 2
WINDOW 39 0 0 Left 0
SYMATTR Value2 AC 1 0
SYMATTR InstName V1
SYMATTR Value ""
SYMBOL res -352 128 R90
WINDOW 0 0 56 VBottom 2
WINDOW 3 32 56 VTop 2
SYMATTR InstName Z1g
SYMATTR Value 1k
SYMBOL cap -256 128 R90
WINDOW 0 0 32 VBottom 2
WINDOW 3 32 32 VTop 2
SYMATTR InstName Z2g
SYMATTR Value 5n
SYMBOL res -112 128 R90
WINDOW 0 0 56 VBottom 2
WINDOW 3 32 56 VTop 2
SYMATTR InstName Z3g
SYMATTR Value 1k
SYMBOL res 32 128 R90
WINDOW 0 0 56 VBottom 2
WINDOW 3 32 56 VTop 2
SYMATTR InstName Z4g
SYMATTR Value 1k
SYMBOL res 96 288 R180
WINDOW 0 -61 78 Left 2
WINDOW 3 -45 44 Left 2
SYMATTR InstName Z5g
SYMATTR Value 1k
SYMBOL OpAmps\\opamp -176 80 M180
SYMATTR InstName U2
SYMBOL OpAmps\\opamp -272 192 M0
SYMATTR InstName U3
SYMBOL res 816 112 R90
WINDOW 0 0 56 VBottom 2
WINDOW 3 32 56 VTop 2
SYMATTR InstName Z1
SYMATTR Value 1k
SYMBOL cap 912 112 R90
WINDOW 0 0 32 VBottom 2
WINDOW 3 32 32 VTop 2
SYMATTR InstName Z2
SYMATTR Value 5n
SYMBOL res 1056 112 R90
WINDOW 0 0 56 VBottom 2
WINDOW 3 32 56 VTop 2
SYMATTR InstName Z3
SYMATTR Value 1k
SYMBOL res 1200 112 R90
WINDOW 0 0 56 VBottom 2
WINDOW 3 32 56 VTop 2
SYMATTR InstName Z4
SYMATTR Value 1k
SYMBOL res 1264 272 R180
WINDOW 0 -61 78 Left 2
WINDOW 3 -45 44 Left 2
SYMATTR InstName Z5
SYMATTR Value 1k
SYMBOL OpAmps\\opamp 992 64 M180
SYMATTR InstName U4
SYMBOL OpAmps\\opamp 896 176 M0
SYMATTR InstName U5
TEXT 104 -304 Left 2 !.lib opamp.sub
TEXT 104 -264 Left 2 !.ac dec 100 1k 1Meg
TEXT 104 -424 Left 4 ;Filtro Pasa-altos de Maxima Planicidad
TEXT 104 -384 Left 3 ;Desnormalizado - Orden 3 - Inductores reemplazados
