Version 4
SHEET 1 940 680
WIRE -32 -208 -32 -272
WIRE -32 -64 -32 -128
WIRE 320 48 160 48
WIRE 160 112 160 48
WIRE 256 112 160 112
WIRE 320 128 320 48
WIRE 432 128 320 128
WIRE 592 128 512 128
WIRE 736 128 656 128
WIRE 848 128 736 128
WIRE 0 144 -96 144
WIRE 160 144 80 144
WIRE 256 144 160 144
WIRE 160 176 160 144
WIRE 736 176 736 128
WIRE 160 304 160 256
WIRE 736 304 736 256
FLAG 160 304 0
FLAG 736 304 0
FLAG -96 144 Vi
FLAG 848 128 Vo
FLAG -32 -64 0
FLAG -32 -272 Vi
SYMBOL res 96 128 R90
WINDOW 0 0 56 VBottom 2
WINDOW 3 32 56 VTop 2
SYMATTR InstName R1
SYMATTR Value 1
SYMBOL ind 144 160 R0
SYMATTR InstName L1
SYMATTR Value 1
SYMBOL OpAmps\\opamp 288 192 M180
SYMATTR InstName U1
SYMBOL res 528 112 R90
WINDOW 0 0 56 VBottom 2
WINDOW 3 32 56 VTop 2
SYMATTR InstName R2
SYMATTR Value 1
SYMBOL cap 656 112 R90
WINDOW 0 0 32 VBottom 2
WINDOW 3 32 32 VTop 2
SYMATTR InstName C1
SYMATTR Value 1
SYMBOL ind 720 160 R0
SYMATTR InstName L2
SYMATTR Value 1
SYMBOL voltage -32 -224 R0
WINDOW 123 26 94 Left 2
WINDOW 39 0 0 Left 0
SYMATTR InstName V1
SYMATTR Value ""
SYMATTR Value2 AC 1 0
TEXT 184 -136 Left 2 !.lib opamp.sub
TEXT 184 -96 Left 2 !.ac dec 100 0.01 10
TEXT 184 -256 Left 4 ;Filtro Pasa-altos de Maxima Planicidad
TEXT 184 -216 Left 3 ;Normalizado - Orden 3
