Version 4
SHEET 1 940 680
WIRE -32 -208 -32 -272
WIRE -32 -64 -32 -128
WIRE 416 -16 192 -16
WIRE 192 48 192 -16
WIRE 288 48 192 48
WIRE 416 64 416 -16
WIRE 416 64 352 64
WIRE 464 64 416 64
WIRE 624 64 544 64
WIRE 768 64 688 64
WIRE 880 64 768 64
WIRE 32 80 -64 80
WIRE 192 80 96 80
WIRE 288 80 192 80
WIRE 192 112 192 80
WIRE 768 112 768 64
WIRE 192 240 192 192
WIRE 768 240 768 192
FLAG -32 -64 0
FLAG -32 -272 Vi
FLAG 192 240 0
FLAG 768 240 0
FLAG -64 80 Vi
FLAG 880 64 Vo
SYMBOL voltage -32 -224 R0
WINDOW 123 26 94 Left 2
WINDOW 39 0 0 Left 0
SYMATTR Value2 AC 1 0
SYMATTR InstName V1
SYMATTR Value ""
SYMBOL OpAmps\\opamp 320 0 R0
SYMATTR InstName U2
SYMBOL res 560 48 R90
WINDOW 0 0 56 VBottom 2
WINDOW 3 32 56 VTop 2
SYMATTR InstName R2
SYMATTR Value 1k
SYMBOL cap 688 48 R90
WINDOW 0 0 32 VBottom 2
WINDOW 3 32 32 VTop 2
SYMATTR InstName C2
SYMATTR Value 5n
SYMBOL ind 752 96 R0
SYMATTR InstName L1
SYMATTR Value 5m
SYMBOL cap 96 64 R90
WINDOW 0 0 32 VBottom 2
WINDOW 3 32 32 VTop 2
SYMATTR InstName C1
SYMATTR Value 5n
SYMBOL res 176 96 R0
SYMATTR InstName R1
SYMATTR Value 1k
TEXT 184 -136 Left 2 !.lib opamp.sub
TEXT 184 -96 Left 2 !.ac dec 100 1k 1Meg
TEXT 184 -256 Left 4 ;Filtro Pasa-altos de Maxima Planicidad
TEXT 184 -216 Left 3 ;Desnormalizado - Orden 3
TEXT 184 -176 Left 2 ;fp = 40kHz
TEXT 360 -176 Left 2 ;fs = 10kHz
