Version 4
SHEET 1 892 680
WIRE -784 -272 -896 -272
WIRE -608 -272 -704 -272
WIRE 128 -128 -432 -128
WIRE 784 -128 208 -128
WIRE -432 -16 -432 -128
WIRE -240 -16 -432 -16
WIRE -16 -16 -176 -16
WIRE 448 -16 -16 -16
WIRE 560 0 512 0
WIRE 656 0 560 0
WIRE 448 16 368 16
WIRE -928 144 -1008 144
WIRE -768 144 -864 144
WIRE -592 144 -768 144
WIRE -432 160 -432 -16
WIRE -432 160 -528 160
WIRE -352 160 -432 160
WIRE -208 160 -272 160
WIRE -16 160 -16 -16
WIRE -16 160 -208 160
WIRE 64 160 -16 160
WIRE 192 160 144 160
WIRE 240 160 192 160
WIRE 368 160 368 16
WIRE 368 160 304 160
WIRE 416 160 368 160
WIRE 560 160 560 0
WIRE 560 160 496 160
WIRE 608 160 560 160
WIRE 704 160 688 160
WIRE 784 160 784 -128
WIRE 784 160 704 160
WIRE -592 176 -672 176
WIRE -768 192 -768 144
WIRE -208 208 -208 160
WIRE 784 208 784 160
WIRE -16 224 -16 160
WIRE -672 256 -672 176
WIRE -432 256 -432 160
WIRE -432 256 -672 256
WIRE 368 288 368 160
WIRE 368 288 304 288
WIRE 192 304 192 160
WIRE 240 304 192 304
WIRE 704 320 704 160
WIRE 704 320 304 320
WIRE -768 352 -768 272
WIRE -208 352 -208 288
WIRE -16 352 -16 288
WIRE 784 352 784 288
FLAG -208 352 0
FLAG 656 0 Vo
FLAG -608 -272 Vi
FLAG -896 -272 0
FLAG -1008 144 Vi
FLAG -768 352 0
FLAG 784 352 0
FLAG -16 352 0
SYMBOL res -224 192 R0
SYMATTR InstName R1
SYMATTR Value 1.0588
SYMBOL res 160 144 R90
WINDOW 0 0 56 VBottom 2
WINDOW 3 32 56 VTop 2
SYMATTR InstName R2
SYMATTR Value 1
SYMBOL res 704 144 R90
WINDOW 0 0 56 VBottom 2
WINDOW 3 32 56 VTop 2
SYMATTR InstName R3
SYMATTR Value 1
SYMBOL res 512 144 R90
WINDOW 0 0 56 VBottom 2
WINDOW 3 32 56 VTop 2
SYMATTR InstName R4
SYMATTR Value 1
SYMBOL res 224 -144 R90
WINDOW 0 0 56 VBottom 2
WINDOW 3 32 56 VTop 2
SYMATTR InstName R5
SYMATTR Value 9
SYMBOL cap -176 -32 R90
WINDOW 0 0 32 VBottom 2
WINDOW 3 32 32 VTop 2
SYMATTR InstName C1
SYMATTR Value 0.1111
SYMATTR SpiceLine Rser=0
SYMBOL cap 304 144 R90
WINDOW 0 0 32 VBottom 2
WINDOW 3 32 32 VTop 2
SYMATTR InstName C2
SYMATTR Value 1
SYMATTR SpiceLine Rser=0
SYMBOL OpAmps\\opamp 272 240 M0
SYMATTR InstName U1
SYMBOL OpAmps\\opamp 480 64 M180
SYMATTR InstName U2
SYMBOL voltage -688 -272 R90
WINDOW 123 -82 129 VRight 2
WINDOW 39 -113 123 VRight 2
WINDOW 0 -56 47 VRight 2
SYMATTR Value2 AC 1 0
SYMATTR SpiceLine Rser=0
SYMATTR InstName V1
SYMATTR Value ""
SYMBOL OpAmps\\opamp -560 224 M180
SYMATTR InstName U3
SYMBOL cap -864 128 R90
WINDOW 0 0 32 VBottom 2
WINDOW 3 32 32 VTop 2
SYMATTR InstName C3
SYMATTR Value 1
SYMATTR SpiceLine Rser=0
SYMBOL res -784 176 R0
SYMATTR InstName R6
SYMATTR Value 1
SYMBOL res -256 144 R90
WINDOW 0 0 56 VBottom 2
WINDOW 3 32 56 VTop 2
SYMATTR InstName R7
SYMATTR Value 18
SYMBOL res 768 192 R0
SYMATTR InstName R8
SYMATTR Value 1.125
SYMBOL cap -32 224 R0
SYMATTR InstName C4
SYMATTR Value 0.8888
TEXT -912 -120 Left 2 !.lib opamp.sub
TEXT -912 -152 Left 2 !.ac dec 1000 0.001 10
TEXT -432 -328 Left 5 ;Pasa-Altos con cero de transmision - Schaumann
TEXT -432 -256 Left 4 ;Trabajo Semanal 6 - Juan Ronchetti
